<?xml version='1.0' encoding='UTF-8'?>
<!-- generated on Sun Sep 20 23:35:06 2020 by Eclipse SUMO netconvert Version 1.7.0
<configuration xmlns:xsi="http://www.w3.org/2001/XMLSchema-instance" xsi:noNamespaceSchemaLocation="http://sumo.dlr.de/xsd/netconvertConfiguration.xsd">

    <input>
        <type-files value="/home/niranjan/carla/Co-Simulation/Sumo/util/data/opendrive_netconvert.typ.xml"/>
        <opendrive-files value="/tmp/tmp60m8rzb_/Town11.xodr"/>
    </input>

    <output>
        <output-file value="/tmp/tmp9q88oxji/Town11.net.xml"/>
        <output.original-names value="true"/>
    </output>

    <processing>
        <geometry.remove value="true"/>
        <geometry.min-radius.fix value="true"/>
        <geometry.max-grade.fix value="false"/>
    </processing>

    <tls_building>
        <tls.discard-loaded value="true"/>
        <tls.left-green.time value="0"/>
    </tls_building>

    <junctions>
        <rectangular-lane-cut value="true"/>
    </junctions>

    <formats>
        <opendrive.import-all-lanes value="true"/>
        <opendrive.curve-resolution value="1"/>
    </formats>

    <report>
        <aggregate-warnings value="5"/>
    </report>

</configuration>
-->
<net xmlns:xsi="http://www.w3.org/2001/XMLSchema-instance" version="1.6" junctionCornerDetail="5" rectangularLaneCut="true" limitTurnSpeed="5.50" xsi:noNamespaceSchemaLocation="http://sumo.dlr.de/xsd/net_file.xsd">
  <location netOffset="200.00,100.00" convBoundary="0.00,0.00,400.00,200.00" origBoundary="-204.00,-104.00,204.00,104.00" projParameter="!"/>
  <type id="bidirectional" priority="1" speed="1.39" disallow="pedestrian tram rail_urban rail rail_electric rail_fast ship" width="3.65"/>
  <type id="biking" priority="-1" speed="5.56" allow="bicycle" width="1.50"/>
  <type id="border" priority="0" speed="1.39" disallow="all" discard="1" width="0.10"/>
  <type id="driving" priority="1" speed="13.89" disallow="pedestrian tram rail_urban rail rail_electric rail_fast ship" width="3.65"/>
  <type id="entry" priority="1" speed="22.22" disallow="pedestrian tram rail_urban rail rail_electric rail_fast ship" width="3.65"/>
  <type id="exit" priority="1" speed="22.22" disallow="pedestrian tram rail_urban rail rail_electric rail_fast ship" width="3.65"/>
  <type id="median" priority="0" speed="1.39" disallow="all" discard="1" width="0.10"/>
  <type id="mwyEntry" priority="1" speed="22.22" allow="private emergency authority army vip passenger hov taxi bus coach delivery truck trailer motorcycle evehicle custom1 custom2" width="3.65"/>
  <type id="mwyExit" priority="1" speed="22.22" allow="private emergency authority army vip passenger hov taxi bus coach delivery truck trailer motorcycle evehicle custom1 custom2" width="3.65"/>
  <type id="none" priority="0" speed="1.39" disallow="all" discard="1" width="1.00"/>
  <type id="offRamp" priority="1" speed="22.22" allow="private emergency authority army vip passenger hov taxi bus coach delivery truck trailer motorcycle evehicle custom1 custom2" width="3.65"/>
  <type id="onRamp" priority="1" speed="22.22" allow="private emergency authority army vip passenger hov taxi bus coach delivery truck trailer motorcycle evehicle custom1 custom2" width="3.65"/>
  <type id="parking" priority="1" speed="1.39" disallow="pedestrian tram rail_urban rail rail_electric rail_fast ship" width="2.50"/>
  <type id="rail" priority="3" speed="33.33" allow="rail_urban rail rail_electric rail_fast" width="3.65"/>
  <type id="restricted" priority="0" speed="13.89" disallow="all" width="3.65"/>
  <type id="roadWorks" priority="0" speed="1.39" allow="authority" width="3.65"/>
  <type id="shoulder" priority="0" speed="1.39" disallow="all" discard="1" width="1.00"/>
  <type id="sidewalk" priority="-2" speed="2.78" allow="pedestrian" width="2.50"/>
  <type id="special1" priority="1" speed="22.22" allow="custom1" discard="1" width="3.65"/>
  <type id="special2" priority="1" speed="22.22" allow="custom2" discard="1" width="3.65"/>
  <type id="special3" priority="1" speed="22.22" allow="custom1 custom2" discard="1" width="3.65"/>
  <type id="stop" priority="1" speed="13.89" disallow="pedestrian tram rail_urban rail rail_electric rail_fast ship" width="3.65"/>
  <type id="tram" priority="2" speed="13.89" allow="tram" width="3.65"/>
  <edge id=":107_0" function="internal">
    <lane id=":107_0_0" index="0" disallow="all" speed="1.39" length="18.00" width="0.50" shape="396.25,59.00 396.25,41.00">
      <param key="origId" value="113_-2"/>
    </lane>
  </edge>
  <edge id=":107_1" function="internal">
    <lane id=":107_1_0" index="0" disallow="pedestrian tram rail_urban rail rail_electric rail_fast ship" speed="7.36" length="5.70" width="3.50" shape="398.25,59.00 397.79,55.83 396.50,53.69">
      <param key="origId" value="137_-1"/>
    </lane>
  </edge>
  <edge id=":107_2" function="internal">
    <lane id=":107_2_0" index="0" disallow="pedestrian tram rail_urban rail rail_electric rail_fast ship" speed="13.89" length="18.00" width="3.50" shape="398.25,59.00 398.25,41.00">
      <param key="origId" value="113_-1"/>
    </lane>
  </edge>
  <edge id=":107_10" function="internal">
    <lane id=":107_10_0" index="0" disallow="pedestrian tram rail_urban rail rail_electric rail_fast ship" speed="7.36" length="6.04" width="3.50" shape="396.50,53.69 396.42,53.56 394.14,52.20 390.94,51.75">
      <param key="origId" value="137_-1"/>
    </lane>
  </edge>
  <edge id=":107_3" function="internal">
    <lane id=":107_3_0" index="0" allow="pedestrian" speed="2.78" length="18.00" width="2.00" shape="405.63,41.00 405.63,59.00">
      <param key="origId" value="114_4"/>
    </lane>
    <lane id=":107_3_1" index="1" disallow="all" speed="1.39" length="18.00" width="0.63" shape="404.32,41.00 404.32,59.00">
      <param key="origId" value="114_3"/>
    </lane>
    <lane id=":107_3_2" index="2" disallow="all" speed="1.39" length="18.00" width="0.50" shape="403.75,41.00 403.75,59.00">
      <param key="origId" value="114_2"/>
    </lane>
    <lane id=":107_3_3" index="3" disallow="pedestrian tram rail_urban rail rail_electric rail_fast ship" speed="13.89" length="18.00" width="3.50" shape="401.75,41.00 401.75,59.00">
      <param key="origId" value="114_1"/>
    </lane>
  </edge>
  <edge id=":107_7" function="internal">
    <lane id=":107_7_0" index="0" disallow="pedestrian tram rail_urban rail rail_electric rail_fast ship" speed="8.82" length="6.83" width="3.50" shape="401.75,41.00 401.07,45.70 400.00,47.48">
      <param key="origId" value="126_1"/>
    </lane>
  </edge>
  <edge id=":107_11" function="internal">
    <lane id=":107_11_0" index="0" disallow="pedestrian tram rail_urban rail rail_electric rail_fast ship" speed="8.82" length="10.55" width="3.50" shape="400.00,47.48 399.05,49.06 395.67,51.08 390.94,51.75">
      <param key="origId" value="126_1"/>
    </lane>
  </edge>
  <edge id=":107_8" function="internal">
    <lane id=":107_8_0" index="0" disallow="pedestrian tram rail_urban rail rail_electric rail_fast ship" speed="7.36" length="11.74" width="3.50" shape="390.94,48.25 394.14,47.80 396.42,46.44 397.79,44.17 398.25,41.00">
      <param key="origId" value="130_-1"/>
    </lane>
  </edge>
  <edge id=":107_9" function="internal">
    <lane id=":107_9_0" index="0" disallow="pedestrian tram rail_urban rail rail_electric rail_fast ship" speed="8.82" length="17.38" width="3.50" shape="390.94,48.25 395.67,48.92 399.05,50.94 401.07,54.30 401.75,59.00">
      <param key="origId" value="134_-1"/>
    </lane>
  </edge>
  <edge id=":139_0" function="internal">
    <lane id=":139_0_0" index="0" disallow="pedestrian tram rail_urban rail rail_electric rail_fast ship" speed="7.34" length="11.69" width="3.50" shape="298.25,9.00 297.80,5.83 296.44,3.56 294.17,2.20 291.00,1.75">
      <param key="origId" value="167_-1"/>
    </lane>
  </edge>
  <edge id=":139_1" function="internal">
    <lane id=":139_1_0" index="0" disallow="pedestrian tram rail_urban rail rail_electric rail_fast ship" speed="8.81" length="17.34" width="3.50" shape="298.25,9.00 298.92,4.30 300.94,0.94 304.30,-1.08 309.00,-1.75">
      <param key="origId" value="141_-1"/>
    </lane>
  </edge>
  <edge id=":139_2" function="internal">
    <lane id=":139_2_0" index="0" disallow="all" speed="1.39" length="18.00" width="0.50" shape="309.00,3.75 291.00,3.75">
      <param key="origId" value="161_2"/>
    </lane>
  </edge>
  <edge id=":139_3" function="internal">
    <lane id=":139_3_0" index="0" disallow="pedestrian tram rail_urban rail rail_electric rail_fast ship" speed="7.34" length="5.72" width="3.50" shape="309.00,1.75 305.83,2.20 303.67,3.50">
      <param key="origId" value="146_1"/>
    </lane>
  </edge>
  <edge id=":139_4" function="internal">
    <lane id=":139_4_0" index="0" disallow="pedestrian tram rail_urban rail rail_electric rail_fast ship" speed="13.89" length="18.00" width="3.50" shape="309.00,1.75 291.00,1.75">
      <param key="origId" value="161_1"/>
    </lane>
  </edge>
  <edge id=":139_10" function="internal">
    <lane id=":139_10_0" index="0" disallow="pedestrian tram rail_urban rail rail_electric rail_fast ship" speed="7.34" length="5.97" width="3.50" shape="303.67,3.50 303.56,3.56 302.20,5.83 301.75,9.00">
      <param key="origId" value="146_1"/>
    </lane>
  </edge>
  <edge id=":139_5" function="internal">
    <lane id=":139_5_0" index="0" allow="pedestrian" speed="2.78" length="18.00" width="2.00" shape="291.00,-5.63 309.00,-5.64">
      <param key="origId" value="160_-4"/>
    </lane>
    <lane id=":139_5_1" index="1" disallow="all" speed="1.39" length="18.00" width="0.63" shape="291.00,-4.32 309.00,-4.32">
      <param key="origId" value="160_-3"/>
    </lane>
    <lane id=":139_5_2" index="2" disallow="all" speed="1.39" length="18.00" width="0.50" shape="291.00,-3.75 309.00,-3.75">
      <param key="origId" value="160_-2"/>
    </lane>
    <lane id=":139_5_3" index="3" disallow="pedestrian tram rail_urban rail rail_electric rail_fast ship" speed="13.89" length="18.00" width="3.50" shape="291.00,-1.75 309.00,-1.75">
      <param key="origId" value="160_-1"/>
    </lane>
  </edge>
  <edge id=":139_9" function="internal">
    <lane id=":139_9_0" index="0" disallow="pedestrian tram rail_urban rail rail_electric rail_fast ship" speed="8.81" length="6.85" width="3.50" shape="291.00,-1.75 295.70,-1.08 297.50,-0.00">
      <param key="origId" value="163_-1"/>
    </lane>
  </edge>
  <edge id=":139_11" function="internal">
    <lane id=":139_11_0" index="0" disallow="pedestrian tram rail_urban rail rail_electric rail_fast ship" speed="8.81" length="10.49" width="3.50" shape="297.50,-0.00 299.06,0.94 301.08,4.30 301.75,9.00">
      <param key="origId" value="163_-1"/>
    </lane>
  </edge>
  <edge id=":168_0" function="internal">
    <lane id=":168_0_0" index="0" allow="pedestrian" speed="2.78" length="18.20" width="2.00" shape="-5.63,59.00 -5.63,40.80">
      <param key="origId" value="196_-4"/>
    </lane>
    <lane id=":168_0_1" index="1" disallow="all" speed="1.39" length="18.20" width="0.63" shape="-4.32,59.00 -4.32,40.80">
      <param key="origId" value="196_-3"/>
    </lane>
    <lane id=":168_0_2" index="2" disallow="all" speed="1.39" length="18.20" width="0.50" shape="-3.75,59.00 -3.75,40.80">
      <param key="origId" value="196_-2"/>
    </lane>
    <lane id=":168_0_3" index="3" disallow="pedestrian tram rail_urban rail rail_electric rail_fast ship" speed="13.89" length="18.20" width="3.50" shape="-1.75,59.00 -1.75,40.80">
      <param key="origId" value="196_-1"/>
    </lane>
  </edge>
  <edge id=":168_4" function="internal">
    <lane id=":168_4_0" index="0" disallow="pedestrian tram rail_urban rail rail_electric rail_fast ship" speed="8.82" length="6.83" width="3.50" shape="-1.75,59.00 -1.07,54.30 0.00,52.52">
      <param key="origId" value="172_-1"/>
    </lane>
  </edge>
  <edge id=":168_10" function="internal">
    <lane id=":168_10_0" index="0" disallow="pedestrian tram rail_urban rail rail_electric rail_fast ship" speed="8.82" length="10.56" width="3.50" shape="0.00,52.52 0.95,50.94 4.33,48.92 9.06,48.25">
      <param key="origId" value="172_-1"/>
    </lane>
  </edge>
  <edge id=":168_5" function="internal">
    <lane id=":168_5_0" index="0" disallow="pedestrian tram rail_urban rail rail_electric rail_fast ship" speed="7.36" length="11.74" width="3.50" shape="9.06,51.75 5.86,52.20 3.58,53.56 2.21,55.83 1.75,59.00">
      <param key="origId" value="176_1"/>
    </lane>
  </edge>
  <edge id=":168_6" function="internal">
    <lane id=":168_6_0" index="0" disallow="pedestrian tram rail_urban rail rail_electric rail_fast ship" speed="8.86" length="17.55" width="3.50" shape="9.06,51.75 4.33,51.07 0.95,49.01 -1.07,45.59 -1.75,40.80">
      <param key="origId" value="184_1"/>
    </lane>
  </edge>
  <edge id=":168_7" function="internal">
    <lane id=":168_7_0" index="0" disallow="all" speed="1.39" length="18.20" width="0.50" shape="3.75,40.80 3.75,59.00">
      <param key="origId" value="195_2"/>
    </lane>
  </edge>
  <edge id=":168_8" function="internal">
    <lane id=":168_8_0" index="0" disallow="pedestrian tram rail_urban rail rail_electric rail_fast ship" speed="7.40" length="5.84" width="3.50" shape="1.75,40.80 2.21,44.06 3.50,46.26">
      <param key="origId" value="182_1"/>
    </lane>
  </edge>
  <edge id=":168_9" function="internal">
    <lane id=":168_9_0" index="0" disallow="pedestrian tram rail_urban rail rail_electric rail_fast ship" speed="13.89" length="18.20" width="3.50" shape="1.75,40.80 1.75,59.00">
      <param key="origId" value="195_1"/>
    </lane>
  </edge>
  <edge id=":168_11" function="internal">
    <lane id=":168_11_0" index="0" disallow="pedestrian tram rail_urban rail rail_electric rail_fast ship" speed="7.40" length="6.07" width="3.50" shape="3.50,46.26 3.58,46.39 5.86,47.78 9.06,48.25">
      <param key="origId" value="182_1"/>
    </lane>
  </edge>
  <edge id=":199_0" function="internal">
    <lane id=":199_0_0" index="0" allow="pedestrian" speed="2.78" length="18.16" width="2.00" shape="309.00,205.63 290.84,205.63">
      <param key="origId" value="225_4"/>
    </lane>
    <lane id=":199_0_1" index="1" disallow="all" speed="1.39" length="18.16" width="0.63" shape="309.00,204.32 290.84,204.32">
      <param key="origId" value="225_3"/>
    </lane>
    <lane id=":199_0_2" index="2" disallow="all" speed="1.39" length="18.16" width="0.50" shape="309.00,203.75 290.84,203.75">
      <param key="origId" value="225_2"/>
    </lane>
    <lane id=":199_0_3" index="3" disallow="pedestrian tram rail_urban rail rail_electric rail_fast ship" speed="13.89" length="18.16" width="3.50" shape="309.00,201.75 290.84,201.75">
      <param key="origId" value="225_1"/>
    </lane>
  </edge>
  <edge id=":199_4" function="internal">
    <lane id=":199_4_0" index="0" disallow="pedestrian tram rail_urban rail rail_electric rail_fast ship" speed="8.82" length="6.83" width="3.50" shape="309.00,201.75 304.30,201.08 302.51,200.00">
      <param key="origId" value="204_1"/>
    </lane>
  </edge>
  <edge id=":199_10" function="internal">
    <lane id=":199_10_0" index="0" disallow="pedestrian tram rail_urban rail rail_electric rail_fast ship" speed="8.82" length="10.54" width="3.50" shape="302.51,200.00 300.94,199.05 298.92,195.68 298.25,190.95">
      <param key="origId" value="204_1"/>
    </lane>
  </edge>
  <edge id=":199_5" function="internal">
    <lane id=":199_5_0" index="0" disallow="pedestrian tram rail_urban rail rail_electric rail_fast ship" speed="7.36" length="11.73" width="3.50" shape="301.75,190.95 302.20,194.15 303.56,196.43 305.83,197.79 309.00,198.25">
      <param key="origId" value="200_1"/>
    </lane>
  </edge>
  <edge id=":199_6" function="internal">
    <lane id=":199_6_0" index="0" disallow="pedestrian tram rail_urban rail rail_electric rail_fast ship" speed="8.85" length="17.50" width="3.50" shape="301.75,190.95 301.07,195.68 299.02,199.05 295.61,201.08 290.84,201.75">
      <param key="origId" value="207_1"/>
    </lane>
  </edge>
  <edge id=":199_7" function="internal">
    <lane id=":199_7_0" index="0" disallow="all" speed="1.39" length="18.16" width="0.50" shape="290.84,196.25 309.00,196.25">
      <param key="origId" value="224_-2"/>
    </lane>
  </edge>
  <edge id=":199_8" function="internal">
    <lane id=":199_8_0" index="0" disallow="pedestrian tram rail_urban rail rail_electric rail_fast ship" speed="7.39" length="5.82" width="3.50" shape="290.84,198.25 294.08,197.79 296.27,196.50">
      <param key="origId" value="209_-1"/>
    </lane>
  </edge>
  <edge id=":199_9" function="internal">
    <lane id=":199_9_0" index="0" disallow="pedestrian tram rail_urban rail rail_electric rail_fast ship" speed="13.89" length="18.16" width="3.50" shape="290.84,198.25 309.00,198.25">
      <param key="origId" value="224_-1"/>
    </lane>
  </edge>
  <edge id=":199_11" function="internal">
    <lane id=":199_11_0" index="0" disallow="pedestrian tram rail_urban rail rail_electric rail_fast ship" speed="7.39" length="6.04" width="3.50" shape="296.27,196.50 296.40,196.43 297.79,194.15 298.25,190.95">
      <param key="origId" value="209_-1"/>
    </lane>
  </edge>
  <edge id=":240_0" function="internal">
    <lane id=":240_0_0" index="0" disallow="all" speed="1.39" length="18.00" width="0.50" shape="296.25,59.00 296.25,41.00">
      <param key="origId" value="284_-2"/>
    </lane>
  </edge>
  <edge id=":240_1" function="internal">
    <lane id=":240_1_0" index="0" disallow="pedestrian tram rail_urban rail rail_electric rail_fast ship" speed="7.34" length="5.72" width="3.50" shape="298.25,59.00 297.80,55.83 296.50,53.67">
      <param key="origId" value="263_-1"/>
    </lane>
  </edge>
  <edge id=":240_2" function="internal">
    <lane id=":240_2_0" index="0" disallow="pedestrian tram rail_urban rail rail_electric rail_fast ship" speed="13.89" length="18.00" width="3.50" shape="298.25,59.00 298.25,41.00">
      <param key="origId" value="284_-1"/>
    </lane>
  </edge>
  <edge id=":240_3" function="internal">
    <lane id=":240_3_0" index="0" disallow="pedestrian tram rail_urban rail rail_electric rail_fast ship" speed="8.81" length="6.85" width="3.50" shape="298.25,59.00 298.92,54.30 300.00,52.50">
      <param key="origId" value="269_-1"/>
    </lane>
  </edge>
  <edge id=":240_16" function="internal">
    <lane id=":240_16_0" index="0" disallow="pedestrian tram rail_urban rail rail_electric rail_fast ship" speed="7.34" length="5.97" width="3.50" shape="296.50,53.67 296.44,53.56 294.17,52.20 291.00,51.75">
      <param key="origId" value="263_-1"/>
    </lane>
  </edge>
  <edge id=":240_17" function="internal">
    <lane id=":240_17_0" index="0" disallow="pedestrian tram rail_urban rail rail_electric rail_fast ship" speed="8.81" length="10.49" width="3.50" shape="300.00,52.50 300.94,50.94 304.30,48.92 309.00,48.25">
      <param key="origId" value="269_-1"/>
    </lane>
  </edge>
  <edge id=":240_4" function="internal">
    <lane id=":240_4_0" index="0" disallow="all" speed="1.39" length="18.00" width="0.50" shape="309.00,53.75 291.00,53.75">
      <param key="origId" value="245_2"/>
    </lane>
  </edge>
  <edge id=":240_5" function="internal">
    <lane id=":240_5_0" index="0" disallow="pedestrian tram rail_urban rail rail_electric rail_fast ship" speed="7.34" length="11.69" width="3.50" shape="309.00,51.75 305.83,52.20 303.56,53.56 302.20,55.83 301.75,59.00">
      <param key="origId" value="273_1"/>
    </lane>
  </edge>
  <edge id=":240_6" function="internal">
    <lane id=":240_6_0" index="0" disallow="pedestrian tram rail_urban rail rail_electric rail_fast ship" speed="13.89" length="18.00" width="3.50" shape="309.00,51.75 291.00,51.75">
      <param key="origId" value="245_1"/>
    </lane>
  </edge>
  <edge id=":240_7" function="internal">
    <lane id=":240_7_0" index="0" disallow="pedestrian tram rail_urban rail rail_electric rail_fast ship" speed="8.81" length="17.34" width="3.50" shape="309.00,51.75 304.30,51.08 300.94,49.06 298.92,45.70 298.25,41.00">
      <param key="origId" value="264_1"/>
    </lane>
  </edge>
  <edge id=":240_8" function="internal">
    <lane id=":240_8_0" index="0" disallow="all" speed="1.39" length="18.00" width="0.50" shape="303.75,41.00 303.75,59.00">
      <param key="origId" value="285_2"/>
    </lane>
  </edge>
  <edge id=":240_9" function="internal">
    <lane id=":240_9_0" index="0" disallow="pedestrian tram rail_urban rail rail_electric rail_fast ship" speed="7.34" length="5.72" width="3.50" shape="301.75,41.00 302.20,44.17 303.50,46.33">
      <param key="origId" value="267_1"/>
    </lane>
  </edge>
  <edge id=":240_10" function="internal">
    <lane id=":240_10_0" index="0" disallow="pedestrian tram rail_urban rail rail_electric rail_fast ship" speed="13.89" length="18.00" width="3.50" shape="301.75,41.00 301.75,59.00">
      <param key="origId" value="285_1"/>
    </lane>
  </edge>
  <edge id=":240_11" function="internal">
    <lane id=":240_11_0" index="0" disallow="pedestrian tram rail_urban rail rail_electric rail_fast ship" speed="8.81" length="6.85" width="3.50" shape="301.75,41.00 301.08,45.70 300.00,47.50">
      <param key="origId" value="254_1"/>
    </lane>
  </edge>
  <edge id=":240_18" function="internal">
    <lane id=":240_18_0" index="0" disallow="pedestrian tram rail_urban rail rail_electric rail_fast ship" speed="7.34" length="5.97" width="3.50" shape="303.50,46.33 303.56,46.44 305.83,47.80 309.00,48.25">
      <param key="origId" value="267_1"/>
    </lane>
  </edge>
  <edge id=":240_19" function="internal">
    <lane id=":240_19_0" index="0" disallow="pedestrian tram rail_urban rail rail_electric rail_fast ship" speed="8.81" length="10.49" width="3.50" shape="300.00,47.50 299.06,49.06 295.70,51.08 291.00,51.75">
      <param key="origId" value="254_1"/>
    </lane>
  </edge>
  <edge id=":240_12" function="internal">
    <lane id=":240_12_0" index="0" disallow="all" speed="1.39" length="18.00" width="0.50" shape="291.00,46.25 309.00,46.25">
      <param key="origId" value="246_-2"/>
    </lane>
  </edge>
  <edge id=":240_13" function="internal">
    <lane id=":240_13_0" index="0" disallow="pedestrian tram rail_urban rail rail_electric rail_fast ship" speed="7.34" length="11.69" width="3.50" shape="291.00,48.25 294.17,47.80 296.44,46.44 297.80,44.17 298.25,41.00">
      <param key="origId" value="257_-1"/>
    </lane>
  </edge>
  <edge id=":240_14" function="internal">
    <lane id=":240_14_0" index="0" disallow="pedestrian tram rail_urban rail rail_electric rail_fast ship" speed="13.89" length="18.00" width="3.50" shape="291.00,48.25 309.00,48.25">
      <param key="origId" value="246_-1"/>
    </lane>
  </edge>
  <edge id=":240_15" function="internal">
    <lane id=":240_15_0" index="0" disallow="pedestrian tram rail_urban rail rail_electric rail_fast ship" speed="8.81" length="17.34" width="3.50" shape="291.00,48.25 295.70,48.92 299.06,50.94 301.08,54.30 301.75,59.00">
      <param key="origId" value="259_-1"/>
    </lane>
  </edge>
  <edge id=":26_0" function="internal">
    <lane id=":26_0_0" index="0" disallow="all" speed="1.39" length="18.00" width="0.50" shape="396.25,108.99 396.25,90.99">
      <param key="origId" value="33_-2"/>
    </lane>
  </edge>
  <edge id=":26_1" function="internal">
    <lane id=":26_1_0" index="0" disallow="pedestrian tram rail_urban rail rail_electric rail_fast ship" speed="7.35" length="5.72" width="3.50" shape="398.25,108.99 397.80,105.82 396.50,103.67">
      <param key="origId" value="42_-1"/>
    </lane>
  </edge>
  <edge id=":26_2" function="internal">
    <lane id=":26_2_0" index="0" disallow="pedestrian tram rail_urban rail rail_electric rail_fast ship" speed="13.89" length="18.00" width="3.50" shape="398.25,108.99 398.25,90.99">
      <param key="origId" value="33_-1"/>
    </lane>
  </edge>
  <edge id=":26_10" function="internal">
    <lane id=":26_10_0" index="0" disallow="pedestrian tram rail_urban rail rail_electric rail_fast ship" speed="7.35" length="5.98" width="3.50" shape="396.50,103.67 396.43,103.56 394.16,102.20 390.99,101.74">
      <param key="origId" value="42_-1"/>
    </lane>
  </edge>
  <edge id=":26_3" function="internal">
    <lane id=":26_3_0" index="0" allow="pedestrian" speed="2.78" length="18.00" width="2.00" shape="405.63,90.99 405.63,108.99">
      <param key="origId" value="32_4"/>
    </lane>
    <lane id=":26_3_1" index="1" disallow="all" speed="1.39" length="18.00" width="0.63" shape="404.32,90.99 404.32,108.99">
      <param key="origId" value="32_3"/>
    </lane>
    <lane id=":26_3_2" index="2" disallow="all" speed="1.39" length="18.00" width="0.50" shape="403.75,90.99 403.75,108.99">
      <param key="origId" value="32_2"/>
    </lane>
    <lane id=":26_3_3" index="3" disallow="pedestrian tram rail_urban rail rail_electric rail_fast ship" speed="13.89" length="18.00" width="3.50" shape="401.75,90.99 401.75,108.99">
      <param key="origId" value="32_1"/>
    </lane>
  </edge>
  <edge id=":26_7" function="internal">
    <lane id=":26_7_0" index="0" disallow="pedestrian tram rail_urban rail rail_electric rail_fast ship" speed="8.81" length="6.85" width="3.50" shape="401.75,90.99 401.08,95.70 400.00,97.49">
      <param key="origId" value="51_1"/>
    </lane>
  </edge>
  <edge id=":26_11" function="internal">
    <lane id=":26_11_0" index="0" disallow="pedestrian tram rail_urban rail rail_electric rail_fast ship" speed="8.81" length="10.50" width="3.50" shape="400.00,97.49 399.06,99.06 395.70,101.07 390.99,101.74">
      <param key="origId" value="51_1"/>
    </lane>
  </edge>
  <edge id=":26_8" function="internal">
    <lane id=":26_8_0" index="0" disallow="pedestrian tram rail_urban rail rail_electric rail_fast ship" speed="7.34" length="11.70" width="3.50" shape="390.99,98.24 394.17,97.79 396.44,96.43 397.80,94.16 398.25,90.99">
      <param key="origId" value="56_1"/>
    </lane>
  </edge>
  <edge id=":26_9" function="internal">
    <lane id=":26_9_0" index="0" disallow="pedestrian tram rail_urban rail rail_electric rail_fast ship" speed="8.82" length="17.34" width="3.50" shape="390.99,98.24 395.70,98.92 399.06,100.93 401.08,104.29 401.75,108.99">
      <param key="origId" value="44_1"/>
    </lane>
  </edge>
  <edge id=":286_0" function="internal">
    <lane id=":286_0_0" index="0" disallow="pedestrian tram rail_urban rail rail_electric rail_fast ship" speed="7.49" length="12.21" width="3.50" shape="198.25,9.33 197.78,6.01 196.36,3.64 194.00,2.22 190.69,1.75">
      <param key="origId" value="307_-1"/>
    </lane>
  </edge>
  <edge id=":286_1" function="internal">
    <lane id=":286_1_0" index="0" disallow="pedestrian tram rail_urban rail rail_electric rail_fast ship" speed="8.93" length="17.85" width="3.50" shape="198.25,9.33 198.94,4.48 201.01,1.02 204.47,-1.06 209.31,-1.75">
      <param key="origId" value="299_-1"/>
    </lane>
  </edge>
  <edge id=":286_2" function="internal">
    <lane id=":286_2_0" index="0" disallow="all" speed="1.39" length="18.61" width="0.50" shape="209.31,3.75 190.69,3.75">
      <param key="origId" value="297_2"/>
    </lane>
  </edge>
  <edge id=":286_3" function="internal">
    <lane id=":286_3_0" index="0" disallow="pedestrian tram rail_urban rail rail_electric rail_fast ship" speed="7.49" length="5.81" width="3.50" shape="209.31,1.75 206.00,2.22 203.88,3.50">
      <param key="origId" value="298_1"/>
    </lane>
  </edge>
  <edge id=":286_4" function="internal">
    <lane id=":286_4_0" index="0" disallow="pedestrian tram rail_urban rail rail_electric rail_fast ship" speed="13.89" length="18.61" width="3.50" shape="209.31,1.75 190.69,1.75">
      <param key="origId" value="297_1"/>
    </lane>
  </edge>
  <edge id=":286_10" function="internal">
    <lane id=":286_10_0" index="0" disallow="pedestrian tram rail_urban rail rail_electric rail_fast ship" speed="7.49" length="6.39" width="3.50" shape="203.88,3.50 203.64,3.64 202.22,6.01 201.75,9.33">
      <param key="origId" value="298_1"/>
    </lane>
  </edge>
  <edge id=":286_5" function="internal">
    <lane id=":286_5_0" index="0" allow="pedestrian" speed="2.78" length="18.61" width="2.00" shape="190.69,-5.63 209.31,-5.63">
      <param key="origId" value="296_-4"/>
    </lane>
    <lane id=":286_5_1" index="1" disallow="all" speed="1.39" length="18.61" width="0.63" shape="190.69,-4.32 209.31,-4.32">
      <param key="origId" value="296_-3"/>
    </lane>
    <lane id=":286_5_2" index="2" disallow="all" speed="1.39" length="18.61" width="0.50" shape="190.69,-3.75 209.31,-3.75">
      <param key="origId" value="296_-2"/>
    </lane>
    <lane id=":286_5_3" index="3" disallow="pedestrian tram rail_urban rail rail_electric rail_fast ship" speed="13.89" length="18.61" width="3.50" shape="190.69,-1.75 209.31,-1.75">
      <param key="origId" value="296_-1"/>
    </lane>
  </edge>
  <edge id=":286_9" function="internal">
    <lane id=":286_9_0" index="0" disallow="pedestrian tram rail_urban rail rail_electric rail_fast ship" speed="8.93" length="6.94" width="3.50" shape="190.69,-1.75 195.53,-1.06 197.29,0.00">
      <param key="origId" value="309_-1"/>
    </lane>
  </edge>
  <edge id=":286_11" function="internal">
    <lane id=":286_11_0" index="0" disallow="pedestrian tram rail_urban rail rail_electric rail_fast ship" speed="8.93" length="10.91" width="3.50" shape="197.29,0.00 198.99,1.02 201.06,4.48 201.75,9.33">
      <param key="origId" value="309_-1"/>
    </lane>
  </edge>
  <edge id=":316_0" function="internal">
    <lane id=":316_0_0" index="0" disallow="all" speed="1.39" length="18.02" width="0.50" shape="296.25,108.90 296.25,90.87">
      <param key="origId" value="397_-2"/>
    </lane>
  </edge>
  <edge id=":316_1" function="internal">
    <lane id=":316_1_0" index="0" disallow="pedestrian tram rail_urban rail rail_electric rail_fast ship" speed="7.35" length="5.73" width="3.50" shape="298.25,108.90 297.80,105.72 296.50,103.56">
      <param key="origId" value="375_-1"/>
    </lane>
  </edge>